<?xml version="1.0" encoding="UTF-8"?>

<!-- generated on 2023-08-29 15:44:06 by Eclipse SUMO netedit Version 1.9.2
<configuration xmlns:xsi="http://www.w3.org/2001/XMLSchema-instance" xsi:noNamespaceSchemaLocation="http://sumo.dlr.de/xsd/netconvertConfiguration.xsd">

    <input>
        <sumo-net-file value="C:\Users\19388\Desktop\first\environments_files\network_files\two_crossing_connected.net.xml"/>
    </input>

    <output>
        <output-file value="C:\Users\19388\Desktop\first\environments_files\network_files\two_crossing_connected.net.xml"/>
    </output>

    <processing>
        <geometry.min-radius.fix.railways value="false"/>
        <geometry.max-grade.fix value="false"/>
        <offset.disable-normalization value="true"/>
        <lefthand value="false"/>
    </processing>

    <junctions>
        <no-turnarounds value="true"/>
        <junctions.corner-detail value="5"/>
        <junctions.limit-turn-speed value="5.5"/>
        <rectangular-lane-cut value="false"/>
    </junctions>

    <pedestrian>
        <walkingareas value="false"/>
    </pedestrian>

    <netedit>
        <route-files value="C:\Users\19388\Desktop\first\environments_files\carsflow_files\two_congested.rou.xml"/>
    </netedit>

    <report>
        <aggregate-warnings value="5"/>
    </report>

</configuration>
-->

<routes xmlns:xsi="http://www.w3.org/2001/XMLSchema-instance" xsi:noNamespaceSchemaLocation="http://sumo.dlr.de/xsd/routes_file.xsd">
    <trip id="vehicle_0" depart="0.00" from="E_1to3" to="E_6to8" via="E_3to6"/>
    <trip id="vehicle_1" depart="0.00" from="E_3to1" to="E_6to7" via="E_1to3 E_3to6"/>
</routes>
