<?xml version="1.0" encoding="UTF-8"?>

<!-- generated on 2023-09-04 18:50:46 by Eclipse SUMO netedit Version 1.9.2
<configuration xmlns:xsi="http://www.w3.org/2001/XMLSchema-instance" xsi:noNamespaceSchemaLocation="http://sumo.dlr.de/xsd/netconvertConfiguration.xsd">

    <output>
        <output-file value="C:\Users\19388\Desktop\first\environments_files\network_files\WJ1.net.xml"/>
    </output>

    <processing>
        <offset.disable-normalization value="true"/>
    </processing>

    <junctions>
        <no-turnarounds value="true"/>
    </junctions>

    <report>
        <aggregate-warnings value="5"/>
    </report>

</configuration>
-->

<net version="1.9" junctionCornerDetail="5" limitTurnSpeed="5.50" xmlns:xsi="http://www.w3.org/2001/XMLSchema-instance" xsi:noNamespaceSchemaLocation="http://sumo.dlr.de/xsd/net_file.xsd">

    <location netOffset="0.00,0.00" convBoundary="0.00,0.00,200.00,100.00" origBoundary="10000000000.00,10000000000.00,-10000000000.00,-10000000000.00" projParameter="!"/>

    <edge id=":gneJ4_0" function="internal">
        <lane id=":gneJ4_0_0" index="0" speed="13.89" length="11.20" shape="96.00,-1.60 107.20,-1.60"/>
    </edge>
    <edge id=":gneJ4_1" function="internal">
        <lane id=":gneJ4_1_0" index="0" speed="6.51" length="9.03" shape="96.00,-1.60 98.45,-1.25 100.20,-0.20 101.25,1.55 101.60,4.00"/>
    </edge>

    <edge id="gneE2" from="gneJ3" to="gneJ4" priority="-1">
        <lane id="gneE2_0" index="0" speed="13.89" length="96.00" shape="0.00,-1.60 96.00,-1.60"/>
    </edge>
    <edge id="gneE3" from="gneJ4" to="gneJ5" priority="-1">
        <lane id="gneE3_0" index="0" speed="13.89" length="92.80" shape="107.20,-1.60 200.00,-1.60"/>
    </edge>
    <edge id="gneE4" from="gneJ4" to="gneJ6" priority="-1">
        <lane id="gneE4_0" index="0" speed="13.89" length="96.00" shape="101.60,4.00 101.60,100.00"/>
    </edge>

    <tlLogic id="gneJ4" type="static" programID="0" offset="0">
        <phase duration="82" state="GG"/>
        <phase duration="3"  state="yy"/>
        <phase duration="5"  state="rr"/>
    </tlLogic>

    <junction id="gneJ3" type="dead_end" x="0.00" y="0.00" incLanes="" intLanes="" shape="0.00,0.00 0.00,-3.20"/>
    <junction id="gneJ4" type="traffic_light" x="100.00" y="0.00" incLanes="gneE2_0" intLanes=":gneJ4_0_0 :gneJ4_1_0" shape="100.00,4.00 103.20,4.00 103.64,1.78 104.20,1.00 104.98,0.44 105.98,0.11 107.20,0.00 107.20,-3.20 96.00,-3.20 96.00,0.00 98.22,0.44 99.00,1.00 99.56,1.78 99.89,2.78">
        <request index="0" response="00" foes="00" cont="0"/>
        <request index="1" response="00" foes="00" cont="0"/>
    </junction>
    <junction id="gneJ5" type="dead_end" x="200.00" y="0.00" incLanes="gneE3_0" intLanes="" shape="200.00,-3.20 200.00,0.00"/>
    <junction id="gneJ6" type="dead_end" x="100.00" y="100.00" incLanes="gneE4_0" intLanes="" shape="103.20,100.00 100.00,100.00"/>

    <connection from="gneE2" to="gneE3" fromLane="0" toLane="0" via=":gneJ4_0_0" tl="gneJ4" linkIndex="0" dir="s" state="O"/>
    <connection from="gneE2" to="gneE4" fromLane="0" toLane="0" via=":gneJ4_1_0" tl="gneJ4" linkIndex="1" dir="l" state="O"/>

    <connection from=":gneJ4_0" to="gneE3" fromLane="0" toLane="0" dir="s" state="M"/>
    <connection from=":gneJ4_1" to="gneE4" fromLane="0" toLane="0" dir="l" state="M"/>

</net>
